13
Properties=species:S:1:pos:R:3 gdb=T 101=T 7.36997=T 4.78662=T 3.53123=T 1.3092=T 45.84=T -0.2518=T 0.0822=T 0.334=T 418.298=T 0.113827=T -232.32907=T -232.323327=T -232.322383=T -232.357426=T 20.702=T pbc="F F F"
C       -0.07992786       1.55914739      -0.03875994
C        0.00042206       0.05111569       0.04346551
C        1.31748624      -0.66230034      -0.20269965
C        0.71624326      -0.61854924       1.18128126
O        1.28134126       0.21474798       2.15341739
H        0.80207677       2.01979988       0.41147972
H       -0.15235410       1.89225261      -1.07968732
H       -0.95836082       1.93564781       0.49643179
H       -0.88615174      -0.46939753      -0.30918496
H        1.32384464      -1.60086657      -0.74666557
H        2.18619315      -0.03316813      -0.37068758
H        0.28509951      -1.54025035       1.57291630
H        2.12931661      -0.16234387       2.40895930
